/*--------------------------------*- C++ -*----------------------------------*\
  =========                 |
  \\      /  F ield         | OpenFOAM: The Open Source CFD Toolbox
   \\    /   O peration     | Website:  https://openfoam.org
    \\  /    A nd           | Version:  6
     \\/     M anipulation  |
\*---------------------------------------------------------------------------*/
FoamFile
{
    version     2.0;
    format      ascii;
    class       dictionary;
    object      blockMeshDict;
}
// * * * * * * * * * * * * * * * * * * * * * * * * * * * * * * * * * * * * * //

convertToMeters 1;

vertices
(
    (0 0 -0.0025)
    (0.1 0 -0.0025)
    (0.1 0.1 -0.0025)
    (0 0.1 -0.0025)
    (0 0 0.0025)
    (0.1 0 0.0025)
    (0.1 0.1 0.0025)
    (0 0.1 0.0025)
);

blocks
(
    hex (0 1 2 3 4 5 6 7) (100 100 1) simpleGrading (1 1 1)
);

edges
(
);

boundary
(
    top
    {
        type wall;
        faces
        (
            (2 3 7 6)
        );
    }

    bott
    {
        type wall;
        faces
        (
            (0 1 5 4)
        );
    }

    left
    {
        type wall;
        faces
        (
            (0 4 7 3)
        );
    }

    right
    {
        type wall;
        faces
        (
            (1 2 6 5)
        );
    }

    frontAndBack
    {
        type empty;
        faces
        (
            (4 5 6 7)	
            (0 3 2 1)
        );
    }
);

mergePatchPairs
(
);

// ************************************************************************* //
