/*--------------------------------*- C++ -*----------------------------------*\
  =========                 |
  \\      /  F ield         | OpenFOAM: The Open Source CFD Toolbox
   \\    /   O peration     | Website:  https://openfoam.org
    \\  /    A nd           | Version:  6
     \\/     M anipulation  |
\*---------------------------------------------------------------------------*/
FoamFile
{
    version     2.0;
    format      binary;
    class       polyBoundaryMesh;
    location    "constant/polyMesh";
    object      boundary;
}
// * * * * * * * * * * * * * * * * * * * * * * * * * * * * * * * * * * * * * //

8
(
    top
    {
        type            wall;
        inGroups        1(wall);
        nFaces          0;
        startFace       4896;
    }
    bott
    {
        type            wall;
        inGroups        1(wall);
        nFaces          54;
        startFace       4896;
    }
    left
    {
        type            wall;
        inGroups        1(wall);
        nFaces          45;
        startFace       4950;
    }
    right
    {
        type            wall;
        inGroups        1(wall);
        nFaces          0;
        startFace       4995;
    }
    frontAndBack
    {
        type            empty;
        inGroups        1(empty);
        nFaces          5000;
        startFace       4995;
    }
    procBoundary3to0
    {
        type            processor;
        inGroups        1(processor);
        nFaces          4;
        startFace       9995;
        matchTolerance  0.0001;
        transform       unknown;
        myProcNo        3;
        neighbProcNo    0;
    }
    procBoundary3to1
    {
        type            processor;
        inGroups        1(processor);
        nFaces          52;
        startFace       9999;
        matchTolerance  0.0001;
        transform       unknown;
        myProcNo        3;
        neighbProcNo    1;
    }
    procBoundary3to2
    {
        type            processor;
        inGroups        1(processor);
        nFaces          53;
        startFace       10051;
        matchTolerance  0.0001;
        transform       unknown;
        myProcNo        3;
        neighbProcNo    2;
    }
)

// ************************************************************************* //
