/*--------------------------------*- C++ -*----------------------------------*\
  =========                 |
  \\      /  F ield         | OpenFOAM: The Open Source CFD Toolbox
   \\    /   O peration     | Website:  https://openfoam.org
    \\  /    A nd           | Version:  6
     \\/     M anipulation  |
\*---------------------------------------------------------------------------*/
FoamFile
{
    version     2.0;
    format      binary;
    class       polyBoundaryMesh;
    location    "constant/polyMesh";
    object      boundary;
}
// * * * * * * * * * * * * * * * * * * * * * * * * * * * * * * * * * * * * * //

8
(
    top
    {
        type            wall;
        inGroups        1(wall);
        nFaces          53;
        startFace       4887;
    }
    bott
    {
        type            wall;
        inGroups        1(wall);
        nFaces          0;
        startFace       4940;
    }
    left
    {
        type            wall;
        inGroups        1(wall);
        nFaces          0;
        startFace       4940;
    }
    right
    {
        type            wall;
        inGroups        1(wall);
        nFaces          46;
        startFace       4940;
    }
    frontAndBack
    {
        type            empty;
        inGroups        1(empty);
        nFaces          4990;
        startFace       4986;
    }
    procBoundary0to1
    {
        type            processor;
        inGroups        1(processor);
        nFaces          50;
        startFace       9976;
        matchTolerance  0.0001;
        transform       unknown;
        myProcNo        0;
        neighbProcNo    1;
    }
    procBoundary0to2
    {
        type            processor;
        inGroups        1(processor);
        nFaces          53;
        startFace       10026;
        matchTolerance  0.0001;
        transform       unknown;
        myProcNo        0;
        neighbProcNo    2;
    }
    procBoundary0to3
    {
        type            processor;
        inGroups        1(processor);
        nFaces          4;
        startFace       10079;
        matchTolerance  0.0001;
        transform       unknown;
        myProcNo        0;
        neighbProcNo    3;
    }
)

// ************************************************************************* //
