/*--------------------------------*- C++ -*----------------------------------*\
  =========                 |
  \\      /  F ield         | OpenFOAM: The Open Source CFD Toolbox
   \\    /   O peration     | Website:  https://openfoam.org
    \\  /    A nd           | Version:  6
     \\/     M anipulation  |
\*---------------------------------------------------------------------------*/
FoamFile
{
    version     2.0;
    format      binary;
    class       polyBoundaryMesh;
    location    "constant/polyMesh";
    object      boundary;
}
// * * * * * * * * * * * * * * * * * * * * * * * * * * * * * * * * * * * * * //

7
(
    top
    {
        type            wall;
        inGroups        1(wall);
        nFaces          0;
        startFace       4897;
    }
    bott
    {
        type            wall;
        inGroups        1(wall);
        nFaces          46;
        startFace       4897;
    }
    left
    {
        type            wall;
        inGroups        1(wall);
        nFaces          0;
        startFace       4943;
    }
    right
    {
        type            wall;
        inGroups        1(wall);
        nFaces          54;
        startFace       4943;
    }
    frontAndBack
    {
        type            empty;
        inGroups        1(empty);
        nFaces          5000;
        startFace       4997;
    }
    procBoundary2to0
    {
        type            processor;
        inGroups        1(processor);
        nFaces          53;
        startFace       9997;
        matchTolerance  0.0001;
        transform       unknown;
        myProcNo        2;
        neighbProcNo    0;
    }
    procBoundary2to3
    {
        type            processor;
        inGroups        1(processor);
        nFaces          53;
        startFace       10050;
        matchTolerance  0.0001;
        transform       unknown;
        myProcNo        2;
        neighbProcNo    3;
    }
)

// ************************************************************************* //
