/*--------------------------------*- C++ -*----------------------------------*\
  =========                 |
  \\      /  F ield         | OpenFOAM: The Open Source CFD Toolbox
   \\    /   O peration     | Website:  https://openfoam.org
    \\  /    A nd           | Version:  6
     \\/     M anipulation  |
\*---------------------------------------------------------------------------*/
FoamFile
{
    version     2.0;
    format      binary;
    class       polyBoundaryMesh;
    location    "constant/polyMesh";
    object      boundary;
}
// * * * * * * * * * * * * * * * * * * * * * * * * * * * * * * * * * * * * * //

7
(
    top
    {
        type            wall;
        inGroups        1(wall);
        nFaces          0;
        startFace       2330;
    }
    bott
    {
        type            wall;
        inGroups        1(wall);
        nFaces          40;
        startFace       2330;
    }
    left
    {
        type            wall;
        inGroups        1(wall);
        nFaces          30;
        startFace       2370;
    }
    right
    {
        type            wall;
        inGroups        1(wall);
        nFaces          0;
        startFace       2400;
    }
    frontAndBack
    {
        type            empty;
        inGroups        1(empty);
        nFaces          2400;
        startFace       2400;
    }
    procBoundary2to0
    {
        type            processor;
        inGroups        1(processor);
        nFaces          30;
        startFace       4800;
        matchTolerance  0.0001;
        transform       unknown;
        myProcNo        2;
        neighbProcNo    0;
    }
    procBoundary2to3
    {
        type            processor;
        inGroups        1(processor);
        nFaces          40;
        startFace       4830;
        matchTolerance  0.0001;
        transform       unknown;
        myProcNo        2;
        neighbProcNo    3;
    }
)

// ************************************************************************* //
