/*--------------------------------*- C++ -*----------------------------------*\
  =========                 |
  \\      /  F ield         | OpenFOAM: The Open Source CFD Toolbox
   \\    /   O peration     | Website:  https://openfoam.org
    \\  /    A nd           | Version:  6
     \\/     M anipulation  |
\*---------------------------------------------------------------------------*/
FoamFile
{
    version     2.0;
    format      binary;
    class       polyBoundaryMesh;
    location    "constant/polyMesh";
    object      boundary;
}
// * * * * * * * * * * * * * * * * * * * * * * * * * * * * * * * * * * * * * //

5
(
    top
    {
        type            wall;
        inGroups        1(wall);
        nFaces          80;
        startFace       9460;
    }
    bott
    {
        type            wall;
        inGroups        1(wall);
        nFaces          80;
        startFace       9540;
    }
    left
    {
        type            wall;
        inGroups        1(wall);
        nFaces          60;
        startFace       9620;
    }
    right
    {
        type            wall;
        inGroups        1(wall);
        nFaces          60;
        startFace       9680;
    }
    frontAndBack
    {
        type            empty;
        inGroups        1(empty);
        nFaces          9600;
        startFace       9740;
    }
)

// ************************************************************************* //
