/*--------------------------------*- C++ -*----------------------------------*\
  =========                 |
  \\      /  F ield         | OpenFOAM: The Open Source CFD Toolbox
   \\    /   O peration     | Website:  https://openfoam.org
    \\  /    A nd           | Version:  6
     \\/     M anipulation  |
\*---------------------------------------------------------------------------*/
FoamFile
{
    version     2.0;
    format      binary;
    class       polyBoundaryMesh;
    location    "constant/polyMesh";
    object      boundary;
}
// * * * * * * * * * * * * * * * * * * * * * * * * * * * * * * * * * * * * * //

7
(
    top
    {
        type            wall;
        inGroups        1(wall);
        nFaces          47;
        startFace       4908;
    }
    bott
    {
        type            wall;
        inGroups        1(wall);
        nFaces          0;
        startFace       4955;
    }
    left
    {
        type            wall;
        inGroups        1(wall);
        nFaces          55;
        startFace       4955;
    }
    right
    {
        type            wall;
        inGroups        1(wall);
        nFaces          0;
        startFace       5010;
    }
    frontAndBack
    {
        type            empty;
        inGroups        1(empty);
        nFaces          5010;
        startFace       5010;
    }
    procBoundary1to0
    {
        type            processor;
        inGroups        1(processor);
        nFaces          50;
        startFace       10020;
        matchTolerance  0.0001;
        transform       unknown;
        myProcNo        1;
        neighbProcNo    0;
    }
    procBoundary1to3
    {
        type            processor;
        inGroups        1(processor);
        nFaces          52;
        startFace       10070;
        matchTolerance  0.0001;
        transform       unknown;
        myProcNo        1;
        neighbProcNo    3;
    }
)

// ************************************************************************* //
